Code/tensor_power_flow/tau_benchmark_results/validation_all_w1.0_20260720_142220.csv
name,n_bus,n_pv,n_pq,pv_ratio,rx_ratio,eta,rho,rho_diag,rho_corr,contraction,nr_converged,nr_iter,nr_time_ms,tpf_converged,tpf_outer_iter,tpf_inner_iter_total,tpf_time_ms,max_v_error,mean_v_error,max_angle_error_deg,max_pv_v_error,speedup,passed,error
sz_75_r000,74,1,73,0.013513513513513514,5.822222222222223,0.27852459450570394,1.7332418111840142,1.7332418933342542,1.7332418111840142,0.24944928954673382,True,4,17.256600000109756,True,11,43,3.9729000000079395,4.880057691281081e-09,3.325067878692125e-10,2.2113777871091145e-06,4.880057691281081e-09,4.34357773920191,True,
sz_75_r005,74,4,70,0.05405405405405406,5.822222222222223,0.6866087219823002,1.9888286489095035,1.9195234965428667,1.9888286489095035,0.2395559423434443,True,4,16.77900000140653,True,11,43,3.805300000749412,3.355450139963523e-09,1.2717552341553803e-09,1.496884338259008e-06,3.3554503620081277e-09,4.409376395580399,True,
sz_75_r010,74,8,66,0.10810810810810811,5.822222222222223,0.38079209267142916,1.9815553454049994,1.949262197550793,1.9815553454049994,0.21681595583783608,True,4,16.90980000057607,True,10,40,3.216300001440686,5.8475710940086856e-09,2.23411557272142e-09,2.5281111919461807e-06,5.8475710940086856e-09,5.257531944470856,True,
sz_75_r020,74,15,59,0.20270270270270271,5.822222222222223,1.4596172449260172,2.021715363686441,1.9879513241445954,2.021715363686441,0.1958672471917099,True,4,17.280399999435758,True,10,43,3.8284000002022367,2.1704282815449005e-09,9.936983518315016e-10,8.856006110669057e-07,2.1704282815449005e-09,4.513739420782289,True,
sz_75_r030,74,22,52,0.2972972972972973,5.822222222222223,4.4374435007715185,2.23266514795892,1.9744441320205421,2.23266514795892,0.6002242139489326,True,6,17.676199999186792,True,27,149,10.61209999897983,9.872500816854313e-09,4.02610330959893e-09,8.678158480712739e-06,9.87250070583201e-09,1.6656646658895087,True,
sz_75_r040,74,30,44,0.40540540540540543,5.822222222222223,2.9854589940494076,2.2182580116104162,2.185179672072743,2.2182580116104162,0.3483457255164644,True,5,17.801100000724546,True,14,64,4.447799999979907,3.888432242860063e-09,1.8969902195622327e-09,1.948747266666828e-06,3.8884324649046675e-09,4.002225819687253,True,
sz_75_r050,74,38,36,0.5135135135135135,5.822222222222223,7.231158945942072,2.274082210562346,2.094058275661909,2.274082210562346,0.6386224180588043,True,6,18.29859999998007,True,30,163,13.177099999666098,7.0260484097417475e-09,3.511283175628177e-09,6.532563458172547e-06,7.0260484097417475e-09,1.3886667021153174,True,
sz_75_r060,74,45,29,0.6081081081081081,5.822222222222223,4.548795625656279,2.2119079047762797,2.132026398237899,2.2119079047762797,0.4345796921681518,True,5,18.24979999946663,True,17,86,6.978699999308446,7.579897598475327e-09,3.7145378319771597e-09,4.4465901778423245e-06,7.579897598475327e-09,2.615071575117872,True,
